$ Femap Property 1 : Property
PSHELL         1       1    .001       1               1              0.
$ Femap Material 1 : AISI 4340 Steel
MAT1           1   2.9+7             .327.3315-4   6.6-6     70.        +       
+        215000. 240000. 156000.
MAT4           14.8611-4   38.647.3315-4                        
GRID           1       0      1.      0.      0.       0
GRID          14       0     -1.      0.      0.       0
GRID          15       0     -1.      0..3225806       0
GRID          16       0     -1.      0..6451613       0
GRID          17       0     -1.      0..9677419       0
GRID          18       0     -1.      0.1.290323       0
GRID          19       0     -1.      0.1.612903       0
GRID          20       0     -1.      0.1.935484       0
GRID          21       0     -1.      0.2.258065       0
GRID          22       0     -1.      0.2.580645       0
GRID          23       0     -1.      0.2.903226       0
GRID          24       0     -1.      0.3.225806       0
GRID          25       0     -1.      0.3.548387       0
GRID          26       0     -1.      0.3.870968       0
GRID          27       0     -1.      0.4.193548       0
GRID          28       0     -1.      0.4.516129       0
GRID          29       0     -1.      0. 4.83871       0
GRID          30       0     -1.      0. 5.16129       0
GRID          31       0     -1.      0.5.483871       0
GRID          32       0     -1.      0.5.806452       0
$ ... 428 like lines cut
CQUAD4       404       1      45      44     473     472                
CQUAD4       405       1      44      43     474     473                
CQUAD4       406       1      43      42     475     474                
CQUAD4       407       1      42      41     476     475                
CQUAD4       408       1      41      40     477     476                
CQUAD4       409       1      40      39     478     477                
CQUAD4       410       1      39      38     479     478                
CQUAD4       411       1      38      37     480     479                
CQUAD4       412       1      37      36     481     480                
CQUAD4       413       1      36      35     482     481                
CQUAD4       414       1      35      34     483     482                
CQUAD4       415       1      34      33     484     483                
CQUAD4       416       1      33      32     485     484                
CQUAD4       417       1      32      31     486     485                
CQUAD4       418       1      31      30     487     486                
CQUAD4       419       1      30      29     488     487                
CQUAD4       420       1      29      28     489     488                
CQUAD4       421       1      28      27     490     489                
CQUAD4       422       1      27      26     491     490                
CQUAD4       423       1      26      25     492     491                
$ ... 383 like lines cut
